/*--------------------------------*- C++ -*----------------------------------*\
| =========                 |                                                 |
| \\      /  F ield         | OpenFOAM: The Open Source CFD Toolbox           |
|  \\    /   O peration     | Version:  1.6                                   |
|   \\  /    A nd           | Web:      http://www.OpenFOAM.org               |
|    \\/     M anipulation  |                                                 |
\*---------------------------------------------------------------------------*/
FoamFile
{
    version     2.0;
    format      ascii;
    class       dictionary;
    object      controlDict;
}
// * * * * * * * * * * * * * * * * * * * * * * * * * * * * * * * * * * * * * //

application     chLRFoam;

startFrom       latestTime;

startTime       0;

stopAt          endTime;

endTime         0.1;

deltaT          1e-05;

writeControl    timeStep;

writeInterval   10;

purgeWrite      0;

writeFormat     ascii;

writePrecision  6;

writeCompression uncompressed;

timeFormat      general;

timePrecision   6;

runTimeModifiable yes;

functions
{
    fieldAverage1
    {
        // Type of functionObject
        type flexFieldAverage;

        // Where to load it from (if not already in solver)
        functionObjectLibs ( "libFlexFieldAverage.so" );                                                                                                                                                                                    
        
        enabled         true;                                                                              

        // Averaging start after * seconds.
        after           0.3;
        
        resetOnOutput   true;                                               

        // cleanRestart    true;
        outputControl   outputTime;                                                                                                                                                                                                         
        
        // Fields to be averaged - runTime modifiable
        fields
        (
            UL
            {
                mean        on;
                prime2Mean  on;
                base        time;
            }

            pL
            {
                mean        on;
                prime2Mean  on;
                base        time;
            }
        );
    }
}

// ************************************************************************* //
